*Heading
** Job name: Job-1 Model name: Model-1
** Generated by: Abaqus/CAE 6.10-EF1
*Preprint, echo=NO, model=NO, history=NO, contact=NO
**
** PARTS
**
*Part, name=Part-1
*Node
      1, 0.00704580825, 0.00188096613
      2, 0.00200000009, 0.00199337746
      3,           0., 0.00200000009
      4,           0.,           0.
      5, 0.00699998438, -8.16774191e-05
      6, 0.00716517586, 0.00699348515
      7, 0.00200000009, 0.00699348515
      8, 0.00770023698, 0.0299101491
      9,           0., 0.0299999993
     10,           0., 0.00699999975
     11, 0.00654122746, 0.00189220719
     12, 0.00603664666, 0.00190344837
     13, 0.00553206587, 0.00191468943
     14, 0.00502748508, 0.00192593061
     15, 0.00452290429, 0.00193717179
     16, 0.0040183235, 0.00194841286
     17, 0.00351374247, 0.00195965404
     18, 0.00300916168, 0.0019708951
     19, 0.00250458089, 0.00198213616
     20, 0.00150000479, 0.0019962748
** ... 859 like lines cut
*Element, type=DC2D4
 1,   1,  11, 175,  41
 2,  11,  12, 176, 175
 3,  12,  13, 177, 176
 4,  13,  14, 178, 177
 5,  14,  15, 179, 178
 6,  15,  16, 180, 179
 7,  16,  17, 181, 180
 8,  17,  18, 182, 181
 9,  18,  19, 183, 182
10,  19,   2, 184, 183
11,   2,  20, 185, 184
12,  20,  21, 186, 185
13,  21,  22, 187, 186
14,  22,   3,  23, 187
15,  41, 175, 188,  40
16, 175, 176, 189, 188
17, 176, 177, 190, 189
18, 177, 178, 191, 190
19, 178, 179, 192, 191
20, 179, 180, 193, 192
** ... 780 like lines cut
*Nset, nset=_PickedSet3, internal
   6,   7,   8,   9,  10,  51,  52,  53,  54,  55,  56,  57,  58,  59,  69,  70
  71,  72,  73,  74,  75,  76,  77,  78,  79,  80,  81,  82,  83,  84,  85,  86
  87,  88,  89,  90,  91,  92,  93,  94,  95,  96,  97,  98,  99, 100, 101, 102
 103, 104, 105, 106, 107, 108, 109, 110, 111, 112, 113, 114, 115, 116, 117, 118
 119, 120, 121, 122, 123, 124, 125, 126, 127, 128, 129, 130, 131, 132, 133, 134
 135, 136, 137, 138, 139, 140, 141, 142, 143, 144, 145, 146, 147, 148, 149, 150
 151, 152, 153, 154, 155, 156, 157, 158, 159, 160, 161, 162, 163, 164, 165, 166
 167, 168, 169, 170, 171, 172, 173, 174, 295, 296, 297, 298, 299, 300, 301, 302
 303, 304, 305, 306, 307, 308, 309, 310, 311, 312, 313, 314, 315, 316, 317, 318
 319, 320, 321, 322, 323, 324, 325, 326, 327, 328, 329, 330, 331, 332, 333, 334
 335, 336, 337, 338, 339, 340, 341, 342, 343, 344, 345, 346, 347, 348, 349, 350
 351, 352, 353, 354, 355, 356, 357, 358, 359, 360, 361, 362, 363, 364, 365, 366
 367, 368, 369, 370, 371, 372, 373, 374, 375, 376, 377, 378, 379, 380, 381, 382
 383, 384, 385, 386, 387, 388, 389, 390, 391, 392, 393, 394, 395, 396, 397, 398
 399, 400, 401, 402, 403, 404, 405, 406, 407, 408, 409, 410, 411, 412, 413, 414
 415, 416, 417, 418, 419, 420, 421, 422, 423, 424, 425, 426, 427, 428, 429, 430
 431, 432, 433, 434, 435, 436, 437, 438, 439, 440, 441, 442, 443, 444, 445, 446
 447, 448, 449, 450, 451, 452, 453, 454, 455, 456, 457, 458, 459, 460, 461, 462
 463, 464, 465, 466, 467, 468, 469, 470, 471, 472, 473, 474, 475, 476, 477, 478
 479, 480, 481, 482, 483, 484, 485, 486, 487, 488, 489, 490, 491, 492, 493, 494
** ... 25 like lines cut
*Elset, elset=_PickedSet3, internal, generate
 157,  800,    1
*Nset, nset=_PickedSet4, internal
   1,   2,   3,   4,   5,   6,   7,  11,  12,  13,  14,  15,  16,  17,  18,  19
  20,  21,  22,  23,  24,  25,  26,  27,  28,  29,  30,  31,  32,  33,  34,  35
  36,  37,  38,  39,  40,  41,  42,  43,  44,  45,  46,  47,  48,  49,  50,  51
  52,  53,  54,  55,  56,  57,  58,  59,  60,  61,  62,  63,  64,  65,  66,  67
  68, 175, 176, 177, 178, 179, 180, 181, 182, 183, 184, 185, 186, 187, 188, 189
 190, 191, 192, 193, 194, 195, 196, 197, 198, 199, 200, 201, 202, 203, 204, 205
 206, 207, 208, 209, 210, 211, 212, 213, 214, 215, 216, 217, 218, 219, 220, 221
 222, 223, 224, 225, 226, 227, 228, 229, 230, 231, 232, 233, 234, 235, 236, 237
 238, 239, 240, 241, 242, 243, 244, 245, 246, 247, 248, 249, 250, 251, 252, 253
 254, 255, 256, 257, 258, 259, 260, 261, 262, 263, 264, 265, 266, 267, 268, 269
 270, 271, 272, 273, 274, 275, 276, 277, 278, 279, 280, 281, 282, 283, 284, 285
 286, 287, 288, 289, 290, 291, 292, 293, 294
*Elset, elset=_PickedSet4, internal, generate
   1,  156,    1
** Section: Cu
*Solid Section, elset=_PickedSet4, material=Cu
,
** Section: Ni
*Solid Section, elset=_PickedSet3, material=Ni
,
*End Part
**  
**
** ASSEMBLY
**
*Assembly, name=Assembly
**  
*Instance, name=Part-1-1, part=Part-1
*End Instance
**  
*Elset, elset=__PickedSurf4_S3, internal, instance=Part-1-1, generate
 43,  56,   1
*Surface, type=ELEMENT, name=_PickedSurf4, internal
__PickedSurf4_S3, S3
*Elset, elset=__PickedSurf6_S1, internal, instance=Part-1-1, generate
 11,  14,   1
*Elset, elset=__PickedSurf6_S4, internal, instance=Part-1-1
  57,  67,  77,  87,  97, 107, 117, 127, 137, 147, 617, 663, 709, 755
*Surface, type=ELEMENT, name=_PickedSurf6, internal
__PickedSurf6_S1, S1
__PickedSurf6_S4, S4
*Elset, elset=__PickedSurf7_S2, internal, instance=Part-1-1, generate
 202,  800,   46
*Surface, type=ELEMENT, name=_PickedSurf7, internal
__PickedSurf7_S2, S2
*End Assembly
** 
** MATERIALS
** 
*Material, name=Cu
*Conductivity
300.,
*Material, name=Ni
*Conductivity
90.,
** ----------------------------------------------------------------
** 
** STEP: Step-1
** 
*Step, name=Step-1
*Heat Transfer, steady state, deltmx=0.
1., 1., 1e-05, 1., 
** 
** INTERACTIONS
** 
** Interaction: Int-1
*Sfilm
_PickedSurf4, F, 900., 30.
** Interaction: Int-2
*Sfilm
_PickedSurf6, F, 40., 225.
** Interaction: Int-3
*Sfilm
_PickedSurf7, F, 300., 13.
** 
** OUTPUT REQUESTS
** 
*Restart, write, frequency=0
** 
** FIELD OUTPUT: F-Output-1
** 
*Output, field, variable=PRESELECT
*Output, history, frequency=0
*End Step
